Circuit: * C:\Users\Anja\Documents\Project_impulsna\Draft_01.asc

Direct Newton iteration for .op point succeeded.

Date: Thu Jan 20 17:23:14 2022
Total elapsed time: 0.132 seconds.

tnom = 27
temp = 27
method = modified trap
totiter = 3707
traniter = 3692
tranpoints = 1556
accept = 1450
rejected = 106
matrix size = 18
fillins = 7
solver = Normal
Matrix Compiler1: 1.46 KB object code size  0.5/0.3/[0.2]
Matrix Compiler2: off  [0.3]/0.4/0.3

