Circuit: * C:\Users\Anja\Documents\Project_impulsna\Draft1.asc

Direct Newton iteration for .op point succeeded.

Date: Tue Jan 11 15:43:59 2022
Total elapsed time: 0.041 seconds.

tnom = 27
temp = 27
method = modified trap
totiter = 2139
traniter = 2136
tranpoints = 1069
accept = 1058
rejected = 11
matrix size = 3
fillins = 0
solver = Normal
Matrix Compiler1:       3 opcodes  0.1/[0.1]/0.1
Matrix Compiler2: off  [0.1]/0.1/0.1

