Circuit: * C:\Users\Anja\Desktop\Projekat iz Impulsne elektoronike\Draft1.asc


Date: Sat Jan 22 22:00:15 2022
Total elapsed time: 0.097 seconds.

tnom = 27
temp = 27
method = trap
totiter = 107
traniter = 0
tranpoints = 0
accept = 0
rejected = 0
matrix size = 8
fillins = 1
solver = Normal
Matrix Compiler1: 336 bytes object code size  0.3/0.1/[0.1]
Matrix Compiler2: 568 bytes object code size  0.2/0.3/[0.2]

